/*--------------------------------*- C++ -*----------------------------------*\
| =========                 |                                                 |
| \\      /  F ield         | OpenFOAM: The Open Source CFD Toolbox           |
|  \\    /   O peration     | Version:  v2412                                 |
|   \\  /    A nd           | Website:  www.openfoam.com                      |
|    \\/     M anipulation  |                                                 |
\*---------------------------------------------------------------------------*/

FoamFile
{
    version     2.0;
    format      ascii;
    class       dictionary;
    object      thermophysicalProperties;
}

// ************************************************************************* //

thermoType
{
    type            heRhoThermo;
    mixture         pureMixture;
    transport       const;
    thermo          hConst;
    equationOfState Boussinesq;
    specie          specie;
    energy          sensibleEnthalpy;
}

mixture
{
    specie
    {
        molWeight       28.9;
    }

    equationOfState
    {
        rho0            1.2;        // realistischere Luftdichte
        T0              300;
        beta            0.003;       // bewusst erhöht → stärkere Konvektion sichtbar
    }

    thermodynamics
    {
        Cp              1005;       // typische Luft
        Hf              0;
    }

    transport
    {
        mu              1.8e-05;    // realistische Luftviskosität
        Pr              0.7;
    }
}

// ************************************************************************* //
